*74VHC HEX SCHMITT INVERTER
* CONNECTIONS 1A
*	          | 1Y
*             | | 2A
*             | | | 2Y
*             | | | | 3A
*	          | | | | | 3Y
*	          | | | | | | GND
*             | | | | | | | 4Y
*	          | | | | | | | | 4A
*             | | | | | | | | |  5Y
*	          | | | | | | | | |  |  5A
*	          | | | | | | | | |  |  |  6Y
*	          | | | | | | | | |  |  |  |  6A
*	          | | | | | | | | |  |  |  |  |  VCC
*	          | | | | | | | | |  |  |  |  |  |
.SUBCKT VHC74 1 2 3 4 5 6 7 8 9 10 11 12 13 14
*
R1  14 15 4.7K
R2  14  2 3.9K
R3  15 18 2.2K
R4   7 20 5.6K
R5   7 19 2.7K
Q1  15  1 19 QIN
Q2   2 18 20 QIN
R6  14 25 4.7K
R7  14  4 3.9K
R8  25 28 2.2K
R9   7 30 5.6K
R10  7 29 2.7K
Q3  25  3 29 QIN
Q4   4 28 30 QIN
R11 14 35 4.7K
R12 14  6 3.9K
R13 35 38 2.2K
R14  7 40 5.6K
R15  7 39 2.7K
Q5  35  5 39 QIN
Q6   6 38 40 QIN
R16 14 45 4.7K
R17 14  8 3.9K
R18 45 48 2.2K
R19  7 50 5.6K
R20  7 49 2.7K
Q7  45  9 49 QIN
Q8   9 48 50 QIN
R21 14 55 4.7K
R23 14 10 3.9K
R24 55 58 2.2K
R25  7 60 5.6K
R26  7 59 2.7K
Q9  55 11 59 QIN
Q10 10 58 60 QIN
R27 14 65 4.7K
R28 14 12 3.9K
R29 65 68 2.2K
R30  7 70 5.6K
R31  7 69 2.7K
Q11 65 13 69 QIN
Q12 12 68 70 QIN
.MODEL QIN PNP(IS=800.0E-18 BF=2.000E3)
*
.ENDS
