* Lite-on LED

.MODEL D_red D (IS=525u  RS=28 N=6.79 BV=5 IBV=30U CJO=50P VJ=.75 M=150 )