* Lite-on LED

.MODEL D_blue D (IS=.05n  RS=1 N=6.79 BV=5 IBV=30U CJO=50P VJ=.75 M=150 )
